units(length='cm', time='s', quantity='mol', act_energy='kJ/mol')

ideal_gas(name='gas',
          elements="H O N Rh Ar",
          species="""H2   O2   H2O  N2   AR""",
          transport='Mix',
          initial_state=state(temperature=300.0, pressure=OneAtm))

ideal_interface(name='Rh_surface',
                elements="H O N Rh Ar",
                species="""Rh(s)   H2O(s)  H(s)    OH(s)   O(s)""",
                site_density=2.72e-09,
                phases="gas",
          reactions='all',
                initial_state=state(temperature=300.0, pressure=OneAtm))

#-------------------------------------------------------------------------------
# Species data
#-------------------------------------------------------------------------------

species(name='H2',
        atoms='H:2',
        thermo=(NASA([300.00, 1000.00],
                     [ 3.35535140E+00,  5.01361440E-04, -2.30069080E-07,
                      -4.79053240E-10,  4.85225850E-13, -1.01916260E+03,
                      -3.54772280E+00]),
                NASA([1000.00, 5000.00],
                     [ 3.06670950E+00,  5.74737550E-04,  1.39383190E-08,
                      -2.54835180E-11,  2.90985740E-15, -8.65474120E+02,
                      -1.77984240E+00])),
        transport=gas_transport(geom='linear',
                                diam=2.92,
                                well_depth=38.0,
                                polar=0.79,
                                rot_relax=280.0),
        note='(adjust)')

species(name='O2',
        atoms='O:2',
        thermo=(NASA([300.00, 1000.00],
                     [ 3.78371350E+00, -3.02336340E-03,  9.94927510E-06,
                      -9.81891010E-09,  3.30318250E-12, -1.06381070E+03,
                       3.64163450E+00]),
                NASA([1000.00, 5000.00],
                     [ 3.61221390E+00,  7.48531660E-04, -1.98206470E-07,
                       3.37490080E-11, -2.39073740E-15, -1.19781510E+03,
                       3.67033070E+00])),
        transport=gas_transport(geom='linear',
                                diam=3.458,
                                well_depth=107.4,
                                polar=1.6,
                                rot_relax=3.8),
        note='(adjust)')

species(name='H2O',
        atoms='H:2 O:1',
        thermo=(NASA([300.00, 1000.00],
                     [ 4.16772340E+00, -1.81149700E-03,  5.94712880E-06,
                      -4.86920210E-09,  1.52919910E-12, -3.02899690E+04,
                      -7.31354740E-01]),
                NASA([1000.00, 5000.00],
                     [ 2.61104720E+00,  3.15631300E-03, -9.29854380E-07,
                       1.33315380E-10, -7.46893510E-15, -2.98681670E+04,
                       7.20912680E+00])),
        transport=gas_transport(geom='nonlinear',
                                diam=2.605,
                                well_depth=572.4,
                                dipole=1.844,
                                rot_relax=4.0),
        note='(adjust)')

species(name='N2',
        atoms='N:2',
        thermo=(NASA([300.00, 1050.00],
                     [ 3.85321336E+00, -2.44053349E-03,  5.35160392E-06,
                      -3.75608397E-09,  9.22684330E-13, -1.07969550E+03,
                       1.60217419E+00]),
                NASA([1050.00, 3500.00],
                     [ 2.71287897E+00,  1.90359754E-03, -8.54297556E-07,
                       1.84170938E-10, -1.54715988E-14, -8.40225273E+02,
                       7.15926558E+00])),
        transport=gas_transport(geom='linear',
                                diam=3.621,
                                well_depth=97.53,
                                polar=1.76,
                                rot_relax=4.0))

species(name='AR',
        atoms='Ar:1',
        thermo=(NASA([300.00, 1000.00],
                     [ 2.50000000E+00,  0.00000000E+00,  0.00000000E+00,
                       0.00000000E+00,  0.00000000E+00, -7.45374980E+02,
                       4.36600060E+00]),
                NASA([1000.00, 5000.00],
                     [ 2.50000000E+00,  0.00000000E+00,  0.00000000E+00,
                       0.00000000E+00,  0.00000000E+00, -7.45375020E+02,
                       4.36600060E+00])),
        transport=gas_transport(geom='atom',
                                diam=3.33,
                                well_depth=136.5),
        note='(adjust)')

species(name='Rh(s)',
        atoms='Rh:1',
        thermo=(NASA([300.00, 1000.00],
                     [ 0.00000000E+00,  0.00000000E+00,  0.00000000E+00,
                       0.00000000E+00,  0.00000000E+00,  0.00000000E+00,
                       0.00000000E+00]),
                NASA([1000.00, 3000.00],
                     [ 0.00000000E+00,  0.00000000E+00,  0.00000000E+00,
                       0.00000000E+00,  0.00000000E+00,  0.00000000E+00,
                       0.00000000E+00])))

species(name='H2O(s)',
        atoms='H:2 O:1 Rh:1',
        thermo=(NASA([300.00, 1000.00],
                     [ 0.00000000E+00,  0.00000000E+00,  0.00000000E+00,
                       0.00000000E+00,  0.00000000E+00,  0.00000000E+00,
                       0.00000000E+00]),
                NASA([1000.00, 3000.00],
                     [ 0.00000000E+00,  0.00000000E+00,  0.00000000E+00,
                       0.00000000E+00,  0.00000000E+00,  0.00000000E+00,
                       0.00000000E+00])))

species(name='H(s)',
        atoms='H:1 Rh:1',
        thermo=(NASA([300.00, 1000.00],
                     [ 0.00000000E+00,  0.00000000E+00,  0.00000000E+00,
                       0.00000000E+00,  0.00000000E+00,  0.00000000E+00,
                       0.00000000E+00]),
                NASA([1000.00, 3000.00],
                     [ 0.00000000E+00,  0.00000000E+00,  0.00000000E+00,
                       0.00000000E+00,  0.00000000E+00,  0.00000000E+00,
                       0.00000000E+00])))

species(name='OH(s)',
        atoms='H:1 O:1 Rh:1',
        thermo=(NASA([300.00, 1000.00],
                     [ 0.00000000E+00,  0.00000000E+00,  0.00000000E+00,
                       0.00000000E+00,  0.00000000E+00,  0.00000000E+00,
                       0.00000000E+00]),
                NASA([1000.00, 3000.00],
                     [ 0.00000000E+00,  0.00000000E+00,  0.00000000E+00,
                       0.00000000E+00,  0.00000000E+00,  0.00000000E+00,
                       0.00000000E+00])))

species(name='O(s)',
        atoms='O:1 Rh:1',
        thermo=(NASA([300.00, 1000.00],
                     [ 0.00000000E+00,  0.00000000E+00,  0.00000000E+00,
                       0.00000000E+00,  0.00000000E+00,  0.00000000E+00,
                       0.00000000E+00]),
                NASA([1000.00, 3000.00],
                     [ 0.00000000E+00,  0.00000000E+00,  0.00000000E+00,
                       0.00000000E+00,  0.00000000E+00,  0.00000000E+00,
                       0.00000000E+00])))

#-------------------------------------------------------------------------------
# Reaction data
#-------------------------------------------------------------------------------
disable_motz_wise()

# Rh_surface Reaction 1
surface_reaction('H2 + Rh(s) + Rh(s) => H(s) + H(s)', stick(3.000000e-02, 0.0, 0.0))

# Rh_surface Reaction 2
surface_reaction('O2 + Rh(s) + Rh(s) => O(s) + O(s)', stick(1.000000e-02, 0.0, 0.0))

# Rh_surface Reaction 3
surface_reaction('H2O + Rh(s) => H2O(s)', stick(1.000000e-01, 0.0, 0.0))

# Rh_surface Reaction 4
surface_reaction('H(s) + H(s) => Rh(s) + Rh(s) + H2', [5.574000e+19, 0.239, 59.691])

# Rh_surface Reaction 5
surface_reaction('O(s) + O(s) => Rh(s) + Rh(s) + O2', [5.329000e+22, -0.137, 386.995])

# Rh_surface Reaction 6
surface_reaction('H2O(s) => Rh(s) + H2O', [6.858000e+14, -0.28, 44.993])

# Rh_surface Reaction 7
surface_reaction('O(s) + H(s) => OH(s) + Rh(s)', [8.826000e+21, -0.048, 73.365])

# Rh_surface Reaction 8
surface_reaction('OH(s) + Rh(s) => O(s) + H(s)', [1.000000e+21, 0.045, 48.041])

# Rh_surface Reaction 9
surface_reaction('OH(s) + H(s) => H2O(s) + Rh(s)', [1.743000e+22, -0.127, 41.731])

# Rh_surface Reaction 10
surface_reaction('H2O(s) + Rh(s) => OH(s) + H(s)', [5.408000e+22, 0.129, 98.22])

# Rh_surface Reaction 11
surface_reaction('OH(s) + OH(s) => O(s) + H2O(s)', [5.736000e+20, -0.081, 121.594])

# Rh_surface Reaction 12
surface_reaction('O(s) + H2O(s) => OH(s) + OH(s)', [1.570000e+22, 0.081, 203.407])
