THERMO
  300.0   1000.0   3000.0
! all data are dummy data (they are not needed - all rxns irrev.)
O(s)                    O   1Rh  1          I    300.00   3000.00 1000.00      1
 0.00000000E+00 0.00000000E+00 0.00000000E+00 0.00000000E+00 0.00000000E+00    2
 0.00000000E+00 0.00000000E+00 0.00000000E+00 0.00000000E+00 0.00000000E+00    3
 0.00000000E+00 0.00000000E+00 0.00000000E+00 0.00000000E+00                   4
H(s)                    H   1Rh  1          I    300.00   3000.00 1000.00      1
 0.00000000E+00 0.00000000E+00 0.00000000E+00 0.00000000E+00 0.00000000E+00    2
 0.00000000E+00 0.00000000E+00 0.00000000E+00 0.00000000E+00 0.00000000E+00    3
 0.00000000E+00 0.00000000E+00 0.00000000E+00 0.00000000E+00                   4
H2O(s)                  O   1H   2Rh  1     I    300.00   3000.00 1000.00      1
 0.00000000E+00 0.00000000E+00 0.00000000E+00 0.00000000E+00 0.00000000E+00    2
 0.00000000E+00 0.00000000E+00 0.00000000E+00 0.00000000E+00 0.00000000E+00    3
 0.00000000E+00 0.00000000E+00 0.00000000E+00 0.00000000E+00                   4
OH(s)                   O   1H   1Rh  1     I    300.00   3000.00 1000.00      1
 0.00000000E+00 0.00000000E+00 0.00000000E+00 0.00000000E+00 0.00000000E+00    2
 0.00000000E+00 0.00000000E+00 0.00000000E+00 0.00000000E+00 0.00000000E+00    3
 0.00000000E+00 0.00000000E+00 0.00000000E+00 0.00000000E+00                   4
Rh(s)                   Rh  1               S    300.00   3000.00 1000.00      1
 0.00000000E+00 0.00000000E+00 0.00000000E+00 0.00000000E+00 0.00000000E+00    2
 0.00000000E+00 0.00000000E+00 0.00000000E+00 0.00000000E+00 0.00000000E+00    3
 0.00000000E+00 0.00000000E+00 0.00000000E+00 0.00000000E+00                   4
O2            (adjust)  O   2    0    0    0     300.00   5000.00 1000.00      1
 3.61221390E+00 7.48531660E-04-1.98206470E-07 3.37490080E-11-2.39073740E-15    2
-1.19781510E+03 3.67033070E+00 3.78371350E+00-3.02336340E-03 9.94927510E-06    3
-9.81891010E-09 3.30318250E-12-1.06381070E+03 3.64163450E+00                   4
H2            (adjust)  H   2    0    0    0     300.00   5000.00 1000.00      1
 3.06670950E+00 5.74737550E-04 1.39383190E-08-2.54835180E-11 2.90985740E-15    2
-8.65474120E+02-1.77984240E+00 3.35535140E+00 5.01361440E-04-2.30069080E-07    3
-4.79053240E-10 4.85225850E-13-1.01916260E+03-3.54772280E+00                   4
H2O           (adjust)  H   2O   1    0    0     300.00   5000.00 1000.00      1
 2.61104720E+00 3.15631300E-03-9.29854380E-07 1.33315380E-10-7.46893510E-15    2
-2.98681670E+04 7.20912680E+00 4.16772340E+00-1.81149700E-03 5.94712880E-06    3
-4.86920210E-09 1.52919910E-12-3.02899690E+04-7.31354740E-01                   4
AR            (adjust)  AR  1    0    0    0     300.00   5000.00 1000.00      1
 2.50000000E+00 0.00000000E+00 0.00000000E+00 0.00000000E+00 0.00000000E+00    2
-7.45375020E+02 4.36600060E+00 2.50000000E+00 0.00000000E+00 0.00000000E+00    3
 0.00000000E+00 0.00000000E+00-7.45374980E+02 4.36600060E+00                   4
N2                      N   2               G    300.00   3500.00 1050.00      1
 2.71287897e+00 1.90359754e-03-8.54297556e-07 1.84170938e-10-1.54715988e-14    2
-8.40225273e+02 7.15926558e+00 3.85321336e+00-2.44053349e-03 5.35160392e-06    3
-3.75608397e-09 9.22684330e-13-1.07969550e+03 1.60217419e+00                   4
END
